Version 4
SHEET 1 880 680
WIRE 32 96 -48 96
WIRE 96 96 32 96
WIRE 400 96 352 96
WIRE 496 96 400 96
WIRE -48 112 -48 96
WIRE 32 112 32 96
WIRE 400 112 400 96
WIRE 496 112 496 96
WIRE -48 208 -48 192
WIRE 32 208 32 176
WIRE 224 208 224 192
WIRE 400 208 400 176
WIRE 496 208 496 192
FLAG -48 208 0
FLAG 224 208 0
FLAG 400 208 0
FLAG 496 208 0
FLAG 496 96 OUT
FLAG -48 96 IN
FLAG 32 208 0
SYMBOL voltage -48 96 R0
SYMATTR InstName V1
SYMATTR Value 4.2
SYMBOL cap 384 112 R0
SYMATTR InstName C2
SYMATTR Value 10µ
SYMBOL res 480 96 R0
SYMATTR InstName R1
SYMATTR Value 1000000
SYMBOL cap 16 112 R0
SYMATTR InstName C1
SYMATTR Value 1µ
SYMBOL PowerProducts\\LT1117-3.3 224 96 R0
WINDOW 3 -64 40 Left 2
SYMATTR InstName U1
TEXT 256 232 Left 2 !.tran 4m
TEXT 544 72 Left 2 ;3.3V / 165R = 65mA\n3.3V / 1000000R = 3.3uA
TEXT -232 152 Left 2 ;[4.2V - 3V]
